    8

Si      0.110470    0.110471    0.110472
Si      1.471764    1.471764    1.471765
Si      2.837534    2.837534    0.123220
Si      4.197225    4.197225    1.483465
Si      2.837534    0.123219    2.837535
Si      4.197225    1.483465    4.197226
Si      0.123219    2.837534    2.837535
Si      1.483465    4.197225    4.197226
