    8

Si     -0.129566   -0.129566   -0.129566
Si      1.233218    1.233218    1.233218
Si      2.595833    2.595833   -0.125297
Si      3.957958    3.957958    1.237308
Si      2.595834   -0.125297    2.595833
Si      3.957958    1.237308    3.957958
Si     -0.125297    2.595834    2.595833
Si      1.237308    3.957958    3.957958
