    8

Si     -0.131384   -0.131384   -0.131384
Si      1.251683    1.251684    1.251683
Si      2.633175    2.633175   -0.125906
Si      4.016034    4.016034    1.257103
Si      2.633175   -0.125906    2.633175
Si      4.016034    1.257103    4.016034
Si     -0.125906    2.633175    2.633175
Si      1.257103    4.016034    4.016034
