    8

Si     -0.094573   -0.094574   -0.094573
Si      1.288012    1.288012    1.288012
Si      2.673617    2.673617   -0.090446
Si      4.055635    4.055635    1.293324
Si      2.673617   -0.090447    2.673617
Si      4.055636    1.293324    4.055636
Si     -0.090447    2.673617    2.673617
Si      1.293324    4.055636    4.055636
