    8

Si      0.151871    0.151872    0.151873
Si      1.510261    1.510261    1.510260
Si      2.878013    2.878013    0.166035
Si      4.241082    4.241082    1.528068
Si      2.878014    0.166034    2.878013
Si      4.241083    1.528068    4.241083
Si      0.166034    2.878015    2.878013
Si      1.528068    4.241083    4.241083
