    8

Si      0.053231    0.053231    0.053232
Si      1.431096    1.431096    1.431096
Si      2.811693    2.811693    0.049962
Si      4.189579    4.189579    1.428653
Si      2.811692    0.049962    2.811693
Si      4.189579    1.428654    4.189579
Si      0.049962    2.811693    2.811693
Si      1.428653    4.189580    4.189579
