    8

Si      0.199076    0.199076    0.199075
Si      1.559569    1.559569    1.559568
Si      2.927118    2.927118    0.209958
Si      4.287857    4.287857    1.572607
Si      2.927118    0.209959    2.927116
Si      4.287858    1.572608    4.287856
Si      0.209960    2.927119    2.927116
Si      1.572609    4.287858    4.287856
