    8

Si      0.151806    0.151835    0.151836
Si      1.509389    1.509388    1.509386
Si      2.877786    2.877800    0.166496
Si      4.239756    4.239758    1.528370
Si      2.877788    0.166495    2.877800
Si      4.239754    1.528367    4.239757
Si      0.166495    2.877797    2.877797
Si      1.528375    4.239752    4.239754
