    8

Si      0.152150    0.152150    0.152151
Si      1.510168    1.510169    1.510168
Si      2.878005    2.878004    0.166313
Si      4.240889    4.240889    1.528587
Si      2.878005    0.166312    2.878004
Si      4.240891    1.528588    4.240890
Si      0.166312    2.878005    2.878005
Si      1.528588    4.240890    4.240890
