    8

Si     -0.094002   -0.094002   -0.094002
Si      1.268987    1.268987    1.268987
Si      2.634543    2.634543   -0.090660
Si      3.996633    3.996633    1.273113
Si      2.634543   -0.090660    2.634543
Si      3.996632    1.273114    3.996633
Si     -0.090660    2.634543    2.634543
Si      1.273114    3.996632    3.996633
