    8

Si      0.093326    0.093327    0.093327
Si      1.474076    1.474077    1.474076
Si      2.855696    2.855697    0.100951
Si      4.234999    4.234999    1.479095
Si      2.855697    0.100952    2.855696
Si      4.234999    1.479095    4.234999
Si      0.100952    2.855697    2.855697
Si      1.479095    4.235000    4.234999
