    8

Si      0.070550    0.070550    0.070550
Si      1.428145    1.428145    1.428145
Si      2.790896    2.790895    0.067802
Si      4.149168    4.149168    1.427039
Si      2.790895    0.067801    2.790895
Si      4.149168    1.427039    4.149169
Si      0.067802    2.790895    2.790895
Si      1.427039    4.149168    4.149168
