   15

N      11.527195    6.325708    3.473879
N      10.638451    8.392782    3.456415
N       7.588430    8.716174    3.445294
N       7.509603    6.397397    3.462022
N       9.479818    4.995226    3.476188
C      11.749044    7.683857    3.462310
C       9.642389    7.445473    3.463913
C       8.229513    7.529380    3.456684
C       8.161177    5.223173    3.470581
C      10.166554    6.140940    3.473300
H      12.221803    5.573101    3.470723
H      12.771971    8.106553    3.461008
H       6.567603    8.718751    3.417034
H       8.130134    9.580574    3.406496
H       7.513217    4.317451    3.471303
