    8

Si     -0.058769   -0.058769   -0.058769
Si      1.322421    1.322421    1.322419
Si      2.703720    2.703720   -0.055529
Si      4.084796    4.084796    1.325194
Si      2.703721   -0.055530    2.703721
Si      4.084797    1.325195    4.084796
Si     -0.055530    2.703721    2.703721
Si      1.325195    4.084797    4.084796
