    8

Si      0.178075    0.178075    0.178076
Si      1.538481    1.538481    1.538486
Si      2.900142    2.900142    0.179958
Si      4.259026    4.259026    1.539471
Si      2.900147    0.179954    2.900150
Si      4.259021    1.539461    4.259037
Si      0.179954    2.900147    2.900150
Si      1.539462    4.259021    4.259036
