    8

Si      0.131227    0.131228    0.131229
Si      1.512683    1.512683    1.512683
Si      2.898022    2.898023    0.147260
Si      4.279368    4.279367    1.527558
Si      2.898022    0.147260    2.898022
Si      4.279368    1.527560    4.279367
Si      0.147260    2.898022    2.898023
Si      1.527561    4.279368    4.279366
