    8

Si      0.131288    0.131288    0.131288
Si      1.512682    1.512683    1.512682
Si      2.898015    2.898015    0.147249
Si      4.279376    4.279376    1.527536
Si      2.898015    0.147249    2.898015
Si      4.279376    1.527538    4.279375
Si      0.147249    2.898015    2.898015
Si      1.527538    4.279377    4.279375
