    8

Si      0.151812    0.151812    0.151810
Si      1.509368    1.509369    1.509369
Si      2.877773    2.877772    0.166630
Si      4.240046    4.240045    1.528564
Si      2.877773    0.166633    2.877770
Si      4.240044    1.528565    4.240045
Si      0.166632    2.877773    2.877771
Si      1.528559    4.240044    4.240051
