   30

N      -5.750856    3.866525    2.981310
N      -7.849647    4.682897    3.238695
N     -10.113202    2.771334    4.209165
N      -8.425010    1.153802    4.300865
N      -6.110068    1.533649    3.656363
C      -6.600698    4.958073    2.893642
C      -7.813076    3.335304    3.571586
C      -8.816207    2.431407    4.031731
C      -7.132898    0.785650    4.103978
C      -6.515848    2.799221    3.419173
H      -4.754219    3.833628    2.768534
H      -6.236598    5.940580    2.569296
H     -10.797035    2.082073    4.585176
H     -10.388154    3.730896    4.020195
H      -6.918467   -0.268904    4.356508
O      -8.382735   -2.221264    5.543684
O     -11.905456    0.763614    5.275448
N     -10.483505   -2.883668    6.253008
N     -10.160777   -0.740479    5.383074
C      -9.578604   -1.956153    5.708970
C     -11.496329   -0.382164    5.572026
C     -12.380200   -1.412326    6.133536
C     -13.829285   -1.075079    6.337962
C     -11.821937   -2.621553    6.454061
H      -9.493644   -0.002309    4.963591
H     -10.072874   -3.780569    6.510376
H     -12.409526   -3.442865    6.893982
H     -14.381148   -1.918323    6.795448
H     -13.933886   -0.181495    6.986110
H     -14.312732   -0.819456    5.373383
