    8

Si      0.014398    0.014398    0.014398
Si      1.398097    1.398097    1.398098
Si      2.775885    2.775885    0.014178
Si      4.159393    4.159393    1.397610
Si      2.775885    0.014179    2.775884
Si      4.159393    1.397611    4.159392
Si      0.014178    2.775885    2.775884
Si      1.397611    4.159393    4.159392
