    8

Si      0.034911    0.034911    0.034912
Si      1.413377    1.413378    1.413378
Si      2.793568    2.793568    0.032178
Si      4.172019    4.172019    1.410982
Si      2.793567    0.032178    2.793568
Si      4.172019    1.410982    4.172019
Si      0.032178    2.793567    2.793568
Si      1.410981    4.172019    4.172019
