    8

Si      0.151605    0.151606    0.151605
Si      1.509430    1.509430    1.509430
Si      2.877622    2.877623    0.166536
Si      4.239870    4.239870    1.528504
Si      2.877624    0.166537    2.877622
Si      4.239869    1.528503    4.239870
Si      0.166536    2.877625    2.877623
Si      1.528503    4.239870    4.239870
